# generated using pymatgen
data_Na73Si54
_symmetry_space_group_name_H-M   'P 1'
_cell_length_a   9.09921293
_cell_length_b   9.09921293
_cell_length_c   9.09921293
_cell_angle_alpha   60.63421788
_cell_angle_beta   60.63421788
_cell_angle_gamma   60.63421788
_symmetry_Int_Tables_number   1
_chemical_formula_structural   Na73Si54
_chemical_formula_sum   'Na73 Si54'
_cell_volume   540.34575905
_cell_formula_units_Z   1
loop_
 _symmetry_equiv_pos_site_id
 _symmetry_equiv_pos_as_xyz
  1  'x, y, z'
loop_
 _atom_type_symbol
 _atom_type_oxidation_number
  Na+  1.0
  Si4+  4.0
loop_
 _atom_site_type_symbol
 _atom_site_label
 _atom_site_symmetry_multiplicity
 _atom_site_fract_x
 _atom_site_fract_y
 _atom_site_fract_z
 _atom_site_occupancy
  Na+  Na0  1  0.50000000  0.50000000  0.50000000  1.0
  Na+  Na1  1  -0.50000000  1.50000000  0.50000000  1.0
  Na+  Na2  1  -0.11033000  1.61033000  0.25000000  1.0
  Na+  Na3  1  -0.75000000  0.88967000  0.61033000  1.0
  Na+  Na4  1  -0.38967000  1.25000000  0.88967000  1.0
  Na+  Na5  1  -0.38967000  1.25000000  -0.11033000  1.0
  Na+  Na6  1  0.38967000  1.75000000  0.11033000  1.0
  Na+  Na7  1  -0.61033000  0.75000000  1.11033000  1.0
  Na+  Na8  1  -0.25000000  1.11033000  1.38967000  1.0
  Na+  Na9  1  -0.25000000  1.11033000  0.38967000  1.0
  Na+  Na10  1  0.11033000  1.38967000  -0.25000000  1.0
  Na+  Na11  1  0.11033000  1.38967000  0.75000000  1.0
  Na+  Na12  1  -0.50000000  0.50000000  0.50000000  1.0
  Na+  Na13  1  0.00000000  1.00000000  1.00000000  1.0
  Na+  Na14  1  -0.50000000  0.50000000  1.50000000  1.0
  Na+  Na15  1  0.00000000  1.00000000  0.00000000  1.0
  Na+  Na16  1  0.50000000  1.50000000  0.50000000  1.0
  Na+  Na17  1  0.50000000  1.50000000  -0.50000000  1.0
  Na+  Na18  1  -0.11033000  0.61033000  1.25000000  1.0
  Na+  Na19  1  -0.11033000  0.61033000  0.25000000  1.0
  Na+  Na20  1  0.25000000  0.88967000  0.61033000  1.0
  Na+  Na21  1  0.25000000  0.88967000  -0.38967000  1.0
  Na+  Na22  1  -0.38967000  0.25000000  0.88967000  1.0
  Na+  Na23  1  0.61033000  1.25000000  0.88967000  1.0
  Na+  Na24  1  0.61033000  1.25000000  -0.11033000  1.0
  Na+  Na25  1  -0.25000000  0.11033000  1.38967000  1.0
  Na+  Na26  1  -0.25000000  0.11033000  0.38967000  1.0
  Na+  Na27  1  0.38967000  0.75000000  1.11033000  1.0
  Na+  Na28  1  0.38967000  0.75000000  0.11033000  1.0
  Na+  Na29  1  0.75000000  1.11033000  -0.61033000  1.0
  Na+  Na30  1  0.75000000  1.11033000  0.38967000  1.0
  Na+  Na31  1  0.11033000  0.38967000  0.75000000  1.0
  Na+  Na32  1  0.11033000  0.38967000  1.75000000  1.0
  Na+  Na33  1  0.11033000  0.38967000  -0.25000000  1.0
  Na+  Na34  1  1.11033000  1.38967000  -0.25000000  1.0
  Na+  Na35  1  0.00000000  0.00000000  1.00000000  1.0
  Na+  Na36  1  0.50000000  0.50000000  1.50000000  1.0
  Na+  Na37  1  0.50000000  0.50000000  -0.50000000  1.0
  Na+  Na38  1  1.00000000  1.00000000  0.00000000  1.0
  Na+  Na39  1  0.88967000  0.61033000  1.25000000  1.0
  Na+  Na40  1  0.88967000  0.61033000  -0.75000000  1.0
  Na+  Na41  1  0.88967000  0.61033000  0.25000000  1.0
  Na+  Na42  1  -0.11033000  -0.38967000  1.25000000  1.0
  Na+  Na43  1  1.25000000  0.88967000  0.61033000  1.0
  Na+  Na44  1  1.25000000  0.88967000  -0.38967000  1.0
  Na+  Na45  1  0.25000000  -0.11033000  0.61033000  1.0
  Na+  Na46  1  0.61033000  0.25000000  0.88967000  1.0
  Na+  Na47  1  0.25000000  -0.11033000  1.61033000  1.0
  Na+  Na48  1  0.61033000  0.25000000  -0.11033000  1.0
  Na+  Na49  1  0.38967000  -0.25000000  1.11033000  1.0
  Na+  Na50  1  0.38967000  -0.25000000  0.11033000  1.0
  Na+  Na51  1  0.75000000  0.11033000  1.38967000  1.0
  Na+  Na52  1  0.75000000  0.11033000  0.38967000  1.0
  Na+  Na53  1  1.38967000  0.75000000  0.11033000  1.0
  Na+  Na54  1  1.11033000  0.38967000  -0.25000000  1.0
  Na+  Na55  1  1.11033000  0.38967000  0.75000000  1.0
  Na+  Na56  1  0.50000000  -0.50000000  0.50000000  1.0
  Na+  Na57  1  1.00000000  0.00000000  1.00000000  1.0
  Na+  Na58  1  0.50000000  -0.50000000  1.50000000  1.0
  Na+  Na59  1  1.00000000  0.00000000  0.00000000  1.0
  Na+  Na60  1  1.50000000  0.50000000  0.50000000  1.0
  Na+  Na61  1  1.50000000  0.50000000  -0.50000000  1.0
  Na+  Na62  1  0.88967000  -0.38967000  1.25000000  1.0
  Na+  Na63  1  0.88967000  -0.38967000  0.25000000  1.0
  Na+  Na64  1  1.25000000  -0.11033000  0.61033000  1.0
  Na+  Na65  1  1.25000000  -0.11033000  -0.38967000  1.0
  Na+  Na66  1  0.61033000  -0.75000000  0.88967000  1.0
  Na+  Na67  1  1.61033000  0.25000000  -0.11033000  1.0
  Na+  Na68  1  1.75000000  0.11033000  0.38967000  1.0
  Na+  Na69  1  1.38967000  -0.25000000  1.11033000  1.0
  Na+  Na70  1  1.38967000  -0.25000000  0.11033000  1.0
  Na+  Na71  1  1.11033000  -0.61033000  0.75000000  1.0
  Na+  Na72  1  1.50000000  -0.50000000  0.50000000  1.0
  Si4+  Si73  1  -0.25000000  1.45456000  1.04544000  1.0
  Si4+  Si74  1  -0.25000000  1.45456000  0.04544000  1.0
  Si4+  Si75  1  0.04544000  1.75000000  0.45456000  1.0
  Si4+  Si76  1  -0.54544000  1.04544000  0.75000000  1.0
  Si4+  Si77  1  -0.45456000  0.95456000  1.25000000  1.0
  Si4+  Si78  1  -0.45456000  0.95456000  0.25000000  1.0
  Si4+  Si79  1  -0.75000000  0.54544000  0.95456000  1.0
  Si4+  Si80  1  -0.04544000  1.25000000  -0.45456000  1.0
  Si4+  Si81  1  0.25000000  1.54544000  -0.04544000  1.0
  Si4+  Si82  1  -0.04544000  1.25000000  0.54544000  1.0
  Si4+  Si83  1  -0.25000000  0.45456000  1.04544000  1.0
  Si4+  Si84  1  -0.25000000  0.45456000  0.04544000  1.0
  Si4+  Si85  1  0.75000000  1.45456000  0.04544000  1.0
  Si4+  Si86  1  0.04544000  0.75000000  0.45456000  1.0
  Si4+  Si87  1  0.04544000  0.75000000  1.45456000  1.0
  Si4+  Si88  1  0.45456000  1.04544000  -0.25000000  1.0
  Si4+  Si89  1  0.45456000  1.04544000  0.75000000  1.0
  Si4+  Si90  1  -0.45456000  -0.04544000  1.25000000  1.0
  Si4+  Si91  1  0.54544000  0.95456000  1.25000000  1.0
  Si4+  Si92  1  0.54544000  0.95456000  -0.75000000  1.0
  Si4+  Si93  1  0.54544000  0.95456000  0.25000000  1.0
  Si4+  Si94  1  0.95456000  1.25000000  0.54544000  1.0
  Si4+  Si95  1  0.95456000  1.25000000  -0.45456000  1.0
  Si4+  Si96  1  -0.04544000  0.25000000  0.54544000  1.0
  Si4+  Si97  1  0.25000000  0.54544000  0.95456000  1.0
  Si4+  Si98  1  -0.04544000  0.25000000  1.54544000  1.0
  Si4+  Si99  1  0.25000000  0.54544000  -0.04544000  1.0
  Si4+  Si100  1  0.75000000  0.45456000  1.04544000  1.0
  Si4+  Si101  1  0.75000000  0.45456000  0.04544000  1.0
  Si4+  Si102  1  0.04544000  -0.25000000  1.45456000  1.0
  Si4+  Si103  1  0.04544000  -0.25000000  0.45456000  1.0
  Si4+  Si104  1  1.04544000  0.75000000  -0.54544000  1.0
  Si4+  Si105  1  1.04544000  0.75000000  0.45456000  1.0
  Si4+  Si106  1  0.45456000  0.04544000  0.75000000  1.0
  Si4+  Si107  1  0.45456000  0.04544000  1.75000000  1.0
  Si4+  Si108  1  0.45456000  0.04544000  -0.25000000  1.0
  Si4+  Si109  1  1.45456000  1.04544000  -0.25000000  1.0
  Si4+  Si110  1  0.54544000  -0.04544000  1.25000000  1.0
  Si4+  Si111  1  0.54544000  -0.04544000  0.25000000  1.0
  Si4+  Si112  1  0.25000000  -0.45456000  0.95456000  1.0
  Si4+  Si113  1  1.25000000  0.54544000  0.95456000  1.0
  Si4+  Si114  1  0.95456000  0.25000000  -0.45456000  1.0
  Si4+  Si115  1  1.25000000  0.54544000  -0.04544000  1.0
  Si4+  Si116  1  0.95456000  0.25000000  0.54544000  1.0
  Si4+  Si117  1  1.75000000  0.45456000  0.04544000  1.0
  Si4+  Si118  1  0.75000000  -0.54544000  1.04544000  1.0
  Si4+  Si119  1  1.04544000  -0.25000000  0.45456000  1.0
  Si4+  Si120  1  1.04544000  -0.25000000  1.45456000  1.0
  Si4+  Si121  1  1.45456000  0.04544000  -0.25000000  1.0
  Si4+  Si122  1  1.45456000  0.04544000  0.75000000  1.0
  Si4+  Si123  1  1.54544000  -0.04544000  0.25000000  1.0
  Si4+  Si124  1  0.95456000  -0.75000000  0.54544000  1.0
  Si4+  Si125  1  1.25000000  -0.45456000  0.95456000  1.0
  Si4+  Si126  1  1.25000000  -0.45456000  -0.04544000  1.0
