# generated using pymatgen
data_Na43Si36
_symmetry_space_group_name_H-M   'P 1'
_cell_length_a   9.09921293
_cell_length_b   9.09921293
_cell_length_c   9.09921293
_cell_angle_alpha   60.63421788
_cell_angle_beta   60.63421788
_cell_angle_gamma   60.63421788
_symmetry_Int_Tables_number   1
_chemical_formula_structural   Na43Si36
_chemical_formula_sum   'Na43 Si36'
_cell_volume   540.34575905
_cell_formula_units_Z   1
loop_
 _symmetry_equiv_pos_site_id
 _symmetry_equiv_pos_as_xyz
  1  'x, y, z'
loop_
 _atom_type_symbol
 _atom_type_oxidation_number
  Na+  1.0
  Si4+  4.0
loop_
 _atom_site_type_symbol
 _atom_site_label
 _atom_site_symmetry_multiplicity
 _atom_site_fract_x
 _atom_site_fract_y
 _atom_site_fract_z
 _atom_site_occupancy
  Na+  Na0  1  0.50000000  0.50000000  0.50000000  1.0
  Na+  Na1  1  -0.11033000  1.61033000  0.25000000  1.0
  Na+  Na2  1  -0.38967000  1.25000000  0.88967000  1.0
  Na+  Na3  1  -0.61033000  0.75000000  1.11033000  1.0
  Na+  Na4  1  -0.25000000  1.11033000  0.38967000  1.0
  Na+  Na5  1  0.11033000  1.38967000  -0.25000000  1.0
  Na+  Na6  1  0.11033000  1.38967000  0.75000000  1.0
  Na+  Na7  1  0.00000000  1.00000000  1.00000000  1.0
  Na+  Na8  1  0.00000000  1.00000000  0.00000000  1.0
  Na+  Na9  1  -0.11033000  0.61033000  1.25000000  1.0
  Na+  Na10  1  -0.11033000  0.61033000  0.25000000  1.0
  Na+  Na11  1  -0.38967000  0.25000000  0.88967000  1.0
  Na+  Na12  1  0.25000000  0.88967000  0.61033000  1.0
  Na+  Na13  1  0.25000000  0.88967000  -0.38967000  1.0
  Na+  Na14  1  0.61033000  1.25000000  -0.11033000  1.0
  Na+  Na15  1  0.38967000  0.75000000  1.11033000  1.0
  Na+  Na16  1  0.38967000  0.75000000  0.11033000  1.0
  Na+  Na17  1  -0.25000000  0.11033000  1.38967000  1.0
  Na+  Na18  1  0.75000000  1.11033000  -0.61033000  1.0
  Na+  Na19  1  0.75000000  1.11033000  0.38967000  1.0
  Na+  Na20  1  0.11033000  0.38967000  0.75000000  1.0
  Na+  Na21  1  0.00000000  0.00000000  1.00000000  1.0
  Na+  Na22  1  1.00000000  1.00000000  0.00000000  1.0
  Na+  Na23  1  0.88967000  0.61033000  0.25000000  1.0
  Na+  Na24  1  0.61033000  0.25000000  0.88967000  1.0
  Na+  Na25  1  0.61033000  0.25000000  -0.11033000  1.0
  Na+  Na26  1  0.25000000  -0.11033000  0.61033000  1.0
  Na+  Na27  1  0.25000000  -0.11033000  1.61033000  1.0
  Na+  Na28  1  1.25000000  0.88967000  -0.38967000  1.0
  Na+  Na29  1  0.38967000  -0.25000000  1.11033000  1.0
  Na+  Na30  1  0.75000000  0.11033000  1.38967000  1.0
  Na+  Na31  1  0.75000000  0.11033000  0.38967000  1.0
  Na+  Na32  1  1.38967000  0.75000000  0.11033000  1.0
  Na+  Na33  1  1.11033000  0.38967000  -0.25000000  1.0
  Na+  Na34  1  1.11033000  0.38967000  0.75000000  1.0
  Na+  Na35  1  1.00000000  0.00000000  1.00000000  1.0
  Na+  Na36  1  1.00000000  0.00000000  0.00000000  1.0
  Na+  Na37  1  0.88967000  -0.38967000  1.25000000  1.0
  Na+  Na38  1  0.88967000  -0.38967000  0.25000000  1.0
  Na+  Na39  1  1.25000000  -0.11033000  0.61033000  1.0
  Na+  Na40  1  1.61033000  0.25000000  -0.11033000  1.0
  Na+  Na41  1  1.38967000  -0.25000000  0.11033000  1.0
  Na+  Na42  1  1.11033000  -0.61033000  0.75000000  1.0
  Si4+  Si43  1  -0.25000000  1.45456000  0.04544000  1.0
  Si4+  Si44  1  -0.54544000  1.04544000  0.75000000  1.0
  Si4+  Si45  1  -0.45456000  0.95456000  1.25000000  1.0
  Si4+  Si46  1  -0.45456000  0.95456000  0.25000000  1.0
  Si4+  Si47  1  0.25000000  1.54544000  -0.04544000  1.0
  Si4+  Si48  1  -0.04544000  1.25000000  0.54544000  1.0
  Si4+  Si49  1  -0.25000000  0.45456000  1.04544000  1.0
  Si4+  Si50  1  0.75000000  1.45456000  0.04544000  1.0
  Si4+  Si51  1  0.04544000  0.75000000  0.45456000  1.0
  Si4+  Si52  1  0.04544000  0.75000000  1.45456000  1.0
  Si4+  Si53  1  0.45456000  1.04544000  -0.25000000  1.0
  Si4+  Si54  1  0.45456000  1.04544000  0.75000000  1.0
  Si4+  Si55  1  0.54544000  0.95456000  0.25000000  1.0
  Si4+  Si56  1  0.25000000  0.54544000  0.95456000  1.0
  Si4+  Si57  1  0.25000000  0.54544000  -0.04544000  1.0
  Si4+  Si58  1  -0.04544000  0.25000000  0.54544000  1.0
  Si4+  Si59  1  -0.04544000  0.25000000  1.54544000  1.0
  Si4+  Si60  1  0.95456000  1.25000000  -0.45456000  1.0
  Si4+  Si61  1  0.75000000  0.45456000  1.04544000  1.0
  Si4+  Si62  1  0.75000000  0.45456000  0.04544000  1.0
  Si4+  Si63  1  0.04544000  -0.25000000  1.45456000  1.0
  Si4+  Si64  1  1.04544000  0.75000000  -0.54544000  1.0
  Si4+  Si65  1  1.04544000  0.75000000  0.45456000  1.0
  Si4+  Si66  1  0.45456000  0.04544000  0.75000000  1.0
  Si4+  Si67  1  0.54544000  -0.04544000  1.25000000  1.0
  Si4+  Si68  1  0.54544000  -0.04544000  0.25000000  1.0
  Si4+  Si69  1  1.25000000  0.54544000  -0.04544000  1.0
  Si4+  Si70  1  0.25000000  -0.45456000  0.95456000  1.0
  Si4+  Si71  1  0.95456000  0.25000000  -0.45456000  1.0
  Si4+  Si72  1  0.95456000  0.25000000  0.54544000  1.0
  Si4+  Si73  1  0.75000000  -0.54544000  1.04544000  1.0
  Si4+  Si74  1  1.04544000  -0.25000000  0.45456000  1.0
  Si4+  Si75  1  1.45456000  0.04544000  -0.25000000  1.0
  Si4+  Si76  1  1.45456000  0.04544000  0.75000000  1.0
  Si4+  Si77  1  1.54544000  -0.04544000  0.25000000  1.0
  Si4+  Si78  1  1.25000000  -0.45456000  0.95456000  1.0
