# generated using pymatgen
data_Na4V2(PO4)3
_symmetry_space_group_name_H-M   'P 1'
_cell_length_a   8.67423842
_cell_length_b   8.67423826
_cell_length_c   8.67423900
_cell_angle_alpha   62.00364460
_cell_angle_beta   62.00364516
_cell_angle_gamma   62.00363917
_symmetry_Int_Tables_number   1
_chemical_formula_structural   Na4V2(PO4)3
_chemical_formula_sum   'Na8 V4 P6 O24'
_cell_volume   482.19052110
_cell_formula_units_Z   2
loop_
 _symmetry_equiv_pos_site_id
 _symmetry_equiv_pos_as_xyz
  1  'x, y, z'
loop_
 _atom_site_type_symbol
 _atom_site_label
 _atom_site_symmetry_multiplicity
 _atom_site_fract_x
 _atom_site_fract_y
 _atom_site_fract_z
 _atom_site_occupancy
  Na  Na0  1  0.50000100  0.50000100  0.50000100  1
  Na  Na1  1  0.00000100  0.00000100  0.00000100  1
  Na  Na2  1  0.11660200  0.74999800  0.38341500  1
  Na  Na3  1  0.74999800  0.38341500  0.11660200  1
  Na  Na4  1  0.38341500  0.11660200  0.74999800  1
  Na  Na5  1  0.61660200  0.88341500  0.24999800  1
  Na  Na6  1  0.88341500  0.24999800  0.61660200  1
  Na  Na7  1  0.24999800  0.61660200  0.88341500  1
  V  V8  1  0.35386200  0.35386200  0.35386200  1
  V  V9  1  0.85386200  0.85386200  0.85386200  1
  V  V10  1  0.64614100  0.64614100  0.64614100  1
  V  V11  1  0.14614100  0.14614100  0.14614100  1
  P  P12  1  0.45042700  0.75000100  0.04958100  1
  P  P13  1  0.75000100  0.04958100  0.45042700  1
  P  P14  1  0.04958100  0.45042700  0.75000100  1
  P  P15  1  0.95042700  0.54958100  0.25000100  1
  P  P16  1  0.54958100  0.25000100  0.95042700  1
  P  P17  1  0.25000100  0.95042700  0.54958100  1
  O  O18  1  0.30109400  0.11147700  0.51725900  1
  O  O19  1  0.11147700  0.51725900  0.30109400  1
  O  O20  1  0.51725900  0.30109400  0.11147700  1
  O  O21  1  0.80109400  0.01725900  0.61147700  1
  O  O22  1  0.01725900  0.61147700  0.80109400  1
  O  O23  1  0.61147700  0.80109400  0.01725900  1
  O  O24  1  0.69891100  0.88852700  0.48275600  1
  O  O25  1  0.88852700  0.48275600  0.69891100  1
  O  O26  1  0.48275600  0.69891100  0.88852700  1
  O  O27  1  0.19891100  0.98275600  0.38852700  1
  O  O28  1  0.98275600  0.38852700  0.19891100  1
  O  O29  1  0.38852700  0.19891100  0.98275600  1
  O  O30  1  0.58983200  0.23248400  0.43226200  1
  O  O31  1  0.23248400  0.43226200  0.58983200  1
  O  O32  1  0.43226200  0.58983200  0.23248400  1
  O  O33  1  0.08983200  0.93226200  0.73248500  1
  O  O34  1  0.93226200  0.73248400  0.08983200  1
  O  O35  1  0.73248400  0.08983200  0.93226200  1
  O  O36  1  0.41017000  0.76752300  0.56774500  1
  O  O37  1  0.76752300  0.56774500  0.41017000  1
  O  O38  1  0.56774500  0.41017000  0.76752300  1
  O  O39  1  0.91017000  0.06774500  0.26752300  1
  O  O40  1  0.06774500  0.26752300  0.91017000  1
  O  O41  1  0.26752300  0.91017000  0.06774500  1
