# generated using pymatgen
data_NaLi12
_symmetry_space_group_name_H-M   'P 1'
_cell_length_a   2.81610000
_cell_length_b   2.81610000
_cell_length_c   14.05360000
_cell_angle_alpha   90.00000000
_cell_angle_beta   90.00000000
_cell_angle_gamma   120.00000000
_symmetry_Int_Tables_number   1
_chemical_formula_structural   NaLi12
_chemical_formula_sum   'Na1 Li12'
_cell_volume   96.51934480
_cell_formula_units_Z   1
loop_
 _symmetry_equiv_pos_site_id
 _symmetry_equiv_pos_as_xyz
  1  'x, y, z'
loop_
 _atom_type_symbol
 _atom_type_oxidation_number
  Na+  1.0
  Li+  1.0
loop_
 _atom_site_type_symbol
 _atom_site_label
 _atom_site_symmetry_multiplicity
 _atom_site_fract_x
 _atom_site_fract_y
 _atom_site_fract_z
 _atom_site_occupancy
  Na+  Na0  1  0.00000000  0.00000000  0.33333333  1.0
  Li+  Li1  1  -1.33333333  0.33333333  0.33333333  1.0
  Li+  Li2  1  -1.33333333  -0.66666667  0.33333333  1.0
  Li+  Li3  1  -0.33333333  1.33333333  0.33333333  1.0
  Li+  Li4  1  -1.33333333  -1.66666667  0.33333333  1.0
  Li+  Li5  1  -0.33333333  0.33333333  0.33333333  1.0
  Li+  Li6  1  -0.33333333  -0.66666667  0.33333333  1.0
  Li+  Li7  1  0.66666667  1.33333333  0.33333333  1.0
  Li+  Li8  1  -0.33333333  -1.66666667  0.33333333  1.0
  Li+  Li9  1  0.66666667  0.33333333  0.33333333  1.0
  Li+  Li10  1  1.66666667  1.33333333  0.33333333  1.0
  Li+  Li11  1  0.66666667  -0.66666667  0.33333333  1.0
  Li+  Li12  1  1.66666667  0.33333333  0.33333333  1.0
