# generated using pymatgen
data_Na4Si3
_symmetry_space_group_name_H-M   'P 1'
_cell_length_a   18.19842618
_cell_length_b   9.09921309
_cell_length_c   9.09921333
_cell_angle_alpha   60.63421477
_cell_angle_beta   60.63421477
_cell_angle_gamma   60.63421672
_symmetry_Int_Tables_number   1
_chemical_formula_structural   Na4Si3
_chemical_formula_sum   'Na16 Si12'
_cell_volume   1080.69154417
_cell_formula_units_Z   4
loop_
 _symmetry_equiv_pos_site_id
 _symmetry_equiv_pos_as_xyz
  1  'x, y, z'
loop_
 _atom_site_type_symbol
 _atom_site_label
 _atom_site_symmetry_multiplicity
 _atom_site_fract_x
 _atom_site_fract_y
 _atom_site_fract_z
 _atom_site_occupancy
  Na  Na0  1  0.25000000  0.50000000  0.50000000  1
  Na  Na1  1  0.75000000  0.50000000  0.50000000  1
  Na  Na2  1  0.00000000  0.00000000  0.00000000  1
  Na  Na3  1  0.50000000  0.00000000  0.00000000  1
  Na  Na4  1  0.44483500  0.61033000  0.25000000  1
  Na  Na5  1  0.94483500  0.61033000  0.25000000  1
  Na  Na6  1  0.30516500  0.25000000  0.88967000  1
  Na  Na7  1  0.80516500  0.25000000  0.88967000  1
  Na  Na8  1  0.12500000  0.88967000  0.61033000  1
  Na  Na9  1  0.62500000  0.88967000  0.61033000  1
  Na  Na10  1  0.19483500  0.75000000  0.11033000  1
  Na  Na11  1  0.69483500  0.75000000  0.11033000  1
  Na  Na12  1  0.37500000  0.11033000  0.38967000  1
  Na  Na13  1  0.87500000  0.11033000  0.38967000  1
  Na  Na14  1  0.05516500  0.38967000  0.75000000  1
  Na  Na15  1  0.55516500  0.38967000  0.75000000  1
  Si  Si16  1  0.27272000  0.95456000  0.25000000  1
  Si  Si17  1  0.77272000  0.95456000  0.25000000  1
  Si  Si18  1  0.47728000  0.25000000  0.54544000  1
  Si  Si19  1  0.97728000  0.25000000  0.54544000  1
  Si  Si20  1  0.12500000  0.54544000  0.95456000  1
  Si  Si21  1  0.62500000  0.54544000  0.95456000  1
  Si  Si22  1  0.02272000  0.75000000  0.45456000  1
  Si  Si23  1  0.52272000  0.75000000  0.45456000  1
  Si  Si24  1  0.37500000  0.45456000  0.04544000  1
  Si  Si25  1  0.87500000  0.45456000  0.04544000  1
  Si  Si26  1  0.22728000  0.04544000  0.75000000  1
  Si  Si27  1  0.72728000  0.04544000  0.75000000  1
