data_image0
_chemical_formula_structural       Fe8C24N24Na5
_chemical_formula_sum              "Fe8 C24 N24 Na5"
_cell_length_a       10.1286
_cell_length_b       10.1286
_cell_length_c       10.1286
_cell_angle_alpha    90.0
_cell_angle_beta     90.0
_cell_angle_gamma    90.0

_space_group_name_H-M_alt    "P 1"
_space_group_IT_number       1

loop_
  _space_group_symop_operation_xyz
  'x, y, z'

loop_
  _atom_site_type_symbol
  _atom_site_label
  _atom_site_symmetry_multiplicity
  _atom_site_fract_x
  _atom_site_fract_y
  _atom_site_fract_z
  _atom_site_occupancy
  Fe  Fe1       1.0  0.0  0.0  0.0  1.0000
  Fe  Fe2       1.0  0.0  0.5  0.5  1.0000
  Fe  Fe3       1.0  0.5  0.0  0.5  1.0000
  Fe  Fe4       1.0  0.5  0.5  0.0  1.0000
  Fe  Fe5       1.0  0.0  0.0  0.5  1.0000
  Fe  Fe6       1.0  0.0  0.5  0.0  1.0000
  Fe  Fe7       1.0  0.5  0.0  0.0  1.0000
  Fe  Fe8       1.0  0.5  0.5  0.5  1.0000
  C   C1        1.0  0.0  0.0  0.81427  1.0000
  C   C2        1.0  0.0  0.18573  0.0  1.0000
  C   C3        1.0  0.18573  0.0  0.0  1.0000
  C   C4        1.0  0.0  0.0  0.18573  1.0000
  C   C5        1.0  0.0  0.81427  0.0  1.0000
  C   C6        1.0  0.81427  0.0  0.0  1.0000
  C   C7        1.0  0.0  0.5  0.31443999999999994  1.0000
  C   C8        1.0  0.0  0.68556  0.5  1.0000
  C   C9        1.0  0.18551  0.5  0.5  1.0000
  C   C10       1.0  0.0  0.5  0.68556  1.0000
  C   C11       1.0  0.0  0.31443999999999994  0.5  1.0000
  C   C12       1.0  0.81449  0.5  0.5  1.0000
  C   C13       1.0  0.5  0.0  0.31443999999999994  1.0000
  C   C14       1.0  0.5  0.18551  0.5  1.0000
  C   C15       1.0  0.68556  0.0  0.5  1.0000
  C   C16       1.0  0.5  0.0  0.68556  1.0000
  C   C17       1.0  0.5  0.81449  0.5  1.0000
  C   C18       1.0  0.31443999999999994  0.0  0.5  1.0000
  C   C19       1.0  0.5  0.5  0.81449  1.0000
  C   C20       1.0  0.5  0.68556  0.0  1.0000
  C   C21       1.0  0.68556  0.5  0.0  1.0000
  C   C22       1.0  0.5  0.5  0.18551  1.0000
  C   C23       1.0  0.5  0.31443999999999994  0.0  1.0000
  C   C24       1.0  0.31443999999999994  0.5  0.0  1.0000
  N   N1        1.0  0.0  0.0  0.69944  1.0000
  N   N2        1.0  0.0  0.30056  0.0  1.0000
  N   N3        1.0  0.30056  0.0  0.0  1.0000
  N   N4        1.0  0.0  0.0  0.30056  1.0000
  N   N5        1.0  0.0  0.69944  0.0  1.0000
  N   N6        1.0  0.69944  0.0  0.0  1.0000
  N   N7        1.0  0.0  0.5  0.1996  1.0000
  N   N8        1.0  0.0  0.8004  0.5  1.0000
  N   N9        1.0  0.30037  0.5  0.5  1.0000
  N   N10       1.0  0.0  0.5  0.8004  1.0000
  N   N11       1.0  0.0  0.1996  0.5  1.0000
  N   N12       1.0  0.69963  0.5  0.5  1.0000
  N   N13       1.0  0.5  0.0  0.1996  1.0000
  N   N14       1.0  0.5  0.30037  0.5  1.0000
  N   N15       1.0  0.8004  0.0  0.5  1.0000
  N   N16       1.0  0.5  0.0  0.8004  1.0000
  N   N17       1.0  0.5  0.69963  0.5  1.0000
  N   N18       1.0  0.1996  0.0  0.5  1.0000
  N   N19       1.0  0.5  0.5  0.69963  1.0000
  N   N20       1.0  0.5  0.8004  0.0  1.0000
  N   N21       1.0  0.8004  0.5  0.0  1.0000
  N   N22       1.0  0.5  0.5  0.30037  1.0000
  N   N23       1.0  0.5  0.1996  0.0  1.0000
  N   N24       1.0  0.1996  0.5  0.0  1.0000
  Na  Na1       1.0  0.75  0.75  0.0  1.0000
  Na  Na2       1.0  0.0  0.75  0.75  1.0000
  Na  Na3       1.0  0.0  0.25  0.25  1.0000
  Na  Na4       1.0  0.25  0.25  0.0  1.0000
  Na  Na5       1.0  0.5  0.25  0.25  1.0000
