# generated using pymatgen
data_Na7Si6
_symmetry_space_group_name_H-M   'P 1'
_cell_length_a   9.09921293
_cell_length_b   9.09921293
_cell_length_c   9.09921293
_cell_angle_alpha   60.63421788
_cell_angle_beta   60.63421788
_cell_angle_gamma   60.63421788
_symmetry_Int_Tables_number   1
_chemical_formula_structural   Na7Si6
_chemical_formula_sum   'Na7 Si6'
_cell_volume   540.34575905
_cell_formula_units_Z   1
loop_
 _symmetry_equiv_pos_site_id
 _symmetry_equiv_pos_as_xyz
  1  'x, y, z'
loop_
 _atom_type_symbol
 _atom_type_oxidation_number
  Na+  1.0
  Si4+  4.0
loop_
 _atom_site_type_symbol
 _atom_site_label
 _atom_site_symmetry_multiplicity
 _atom_site_fract_x
 _atom_site_fract_y
 _atom_site_fract_z
 _atom_site_occupancy
  Na+  Na0  1  0.50000000  0.50000000  0.50000000  1.0
  Na+  Na1  1  0.25000000  0.88967000  0.61033000  1.0
  Na+  Na2  1  0.38967000  0.75000000  0.11033000  1.0
  Na+  Na3  1  0.11033000  0.38967000  0.75000000  1.0
  Na+  Na4  1  0.88967000  0.61033000  0.25000000  1.0
  Na+  Na5  1  0.61033000  0.25000000  0.88967000  1.0
  Na+  Na6  1  0.75000000  0.11033000  0.38967000  1.0
  Si4+  Si7  1  0.04544000  0.75000000  0.45456000  1.0
  Si4+  Si8  1  0.54544000  0.95456000  0.25000000  1.0
  Si4+  Si9  1  0.25000000  0.54544000  0.95456000  1.0
  Si4+  Si10  1  0.75000000  0.45456000  0.04544000  1.0
  Si4+  Si11  1  0.45456000  0.04544000  0.75000000  1.0
  Si4+  Si12  1  0.95456000  0.25000000  0.54544000  1.0
