# generated using pymatgen
data_Li3ClO
_symmetry_space_group_name_H-M   'P 1'
_cell_length_a   3.85020927
_cell_length_b   8.71577651
_cell_length_c   72.62062044
_cell_angle_alpha   89.99796703
_cell_angle_beta   90.00013668
_cell_angle_gamma   89.99982515
_symmetry_Int_Tables_number   1
_chemical_formula_structural   Li3ClO
_chemical_formula_sum   'Li120 Cl40 O40'
_cell_volume   2436.97108080
_cell_formula_units_Z   40
loop_
 _symmetry_equiv_pos_site_id
 _symmetry_equiv_pos_as_xyz
  1  'x, y, z'
loop_
 _atom_site_type_symbol
 _atom_site_label
 _atom_site_symmetry_multiplicity
 _atom_site_fract_x
 _atom_site_fract_y
 _atom_site_fract_z
 _atom_site_occupancy
  Li  Li0  1  0.49995114  0.40219822  0.08848138  1
  Li  Li1  1  0.50001722  0.40169513  0.20861323  1
  Li  Li2  1  0.50000731  0.40467069  0.32840657  1
  Li  Li3  1  0.50000251  0.42675732  0.45008065  1
  Li  Li4  1  0.49998481  0.00546899  0.06564944  1
  Li  Li5  1  0.49999901  0.00110973  0.18458079  1
  Li  Li6  1  0.50003389  0.00409267  0.30445137  1
  Li  Li7  1  0.50000275  0.00062630  0.42338954  1
  Li  Li8  1  0.50000135  0.57786782  0.03893268  1
  Li  Li9  1  0.50001035  0.60095872  0.16063158  1
  Li  Li10  1  0.50001558  0.60339596  0.28045876  1
  Li  Li11  1  0.50000937  0.60329301  0.40048502  1
  Li  Li12  1  0.49998684  0.20169035  0.13670524  1
  Li  Li13  1  0.49999974  0.20284884  0.25652548  1
  Li  Li14  1  0.50001191  0.20847686  0.37642914  1
  Li  Li15  1  0.50000624  0.79733987  0.11259202  1
  Li  Li16  1  0.50001133  0.80239241  0.23255859  1
  Li  Li17  1  0.50001779  0.80446367  0.35230130  1
  Li  Li18  1  0.49995075  0.70267243  0.07577155  1
  Li  Li19  1  0.50000449  0.70147240  0.19659638  1
  Li  Li20  1  0.50004258  0.70460224  0.31635448  1
  Li  Li21  1  0.49998169  0.70398027  0.43672487  1
  Li  Li22  1  0.49994613  0.30168439  0.05224497  1
  Li  Li23  1  0.50000327  0.30082956  0.17270659  1
  Li  Li24  1  0.50000518  0.30368537  0.29249371  1
  Li  Li25  1  0.49997502  0.30324345  0.41321443  1
  Li  Li26  1  0.50000620  0.90110007  0.14854988  1
  Li  Li27  1  0.50001227  0.90310962  0.26851400  1
  Li  Li28  1  0.50000686  0.90746645  0.38767575  1
  Li  Li29  1  0.49999119  0.50052329  0.12457439  1
  Li  Li30  1  0.50001414  0.50274590  0.24452961  1
  Li  Li31  1  0.49998630  0.50554502  0.36438749  1
  Li  Li32  1  0.49997240  0.09813469  0.10134681  1
  Li  Li33  1  0.50000006  0.10211263  0.22057196  1
  Li  Li34  1  0.50003958  0.10475023  0.34044680  1
  Li  Li35  1  0.50000777  0.11483926  0.45673722  1
  Li  Li36  1  -0.00008077  0.50120129  0.06414664  1
  Li  Li37  1  0.00000999  0.50129658  0.18465506  1
  Li  Li38  1  0.00000133  0.50412200  0.30441614  1
  Li  Li39  1  -0.00000310  0.50491464  0.42491688  1
  Li  Li40  1  0.99997207  0.10609690  0.04176352  1
  Li  Li41  1  -0.00000888  0.10072445  0.16058338  1
  Li  Li42  1  0.00001098  0.10373513  0.28048962  1
  Li  Li43  1  -0.00000392  0.10838276  0.40016909  1
  Li  Li44  1  -0.00000496  0.70010720  0.13672743  1
  Li  Li45  1  0.00001235  0.70325858  0.25653007  1
  Li  Li46  1  0.00000298  0.70391563  0.37632118  1
  Li  Li47  1  -0.00001389  0.30174260  0.11264970  1
  Li  Li48  1  0.00000788  0.30244842  0.23259626  1
  Li  Li49  1  0.00002020  0.30555080  0.35234757  1
  Li  Li50  1  0.99998760  0.89731777  0.08886274  1
  Li  Li51  1  0.00000465  0.90198700  0.20860023  1
  Li  Li52  1  0.00004273  0.90507661  0.32844030  1
  Li  Li53  1  -0.00001058  0.90017059  0.44721785  1
  Li  Li54  1  0.50000192  0.59784398  0.58847792  1
  Li  Li55  1  0.49999761  0.59834808  0.70861054  1
  Li  Li56  1  0.50000053  0.59532428  0.82840262  1
  Li  Li57  1  0.50000546  0.57309365  0.95008261  1
  Li  Li58  1  0.50000976  0.99458912  0.56565094  1
  Li  Li59  1  0.50000083  -0.00104944  0.68458251  1
  Li  Li60  1  0.49998771  0.99587929  0.80444725  1
  Li  Li61  1  0.50001988  0.99927146  0.92338486  1
  Li  Li62  1  0.50000545  0.42223363  0.53893124  1
  Li  Li63  1  0.49999727  0.39908942  0.66063429  1
  Li  Li64  1  0.49998143  0.39660017  0.78045800  1
  Li  Li65  1  0.50001864  0.39663970  0.90048173  1
  Li  Li66  1  0.49999403  0.79840111  0.63670329  1
  Li  Li67  1  0.50000995  0.79715734  0.75652475  1
  Li  Li68  1  0.50001187  0.79144804  0.87642785  1
  Li  Li69  1  0.49999436  0.20273345  0.61259299  1
  Li  Li70  1  0.49999204  0.19757843  0.73255918  1
  Li  Li71  1  0.49999530  0.19544898  0.85229836  1
  Li  Li72  1  0.50001168  0.29737814  0.57577022  1
  Li  Li73  1  0.49999896  0.29857596  0.69660131  1
  Li  Li74  1  0.49998170  0.29538550  0.81635385  1
  Li  Li75  1  0.50002392  0.29587995  0.93672383  1
  Li  Li76  1  0.50000927  0.69838288  0.55223572  1
  Li  Li77  1  0.49999166  0.69923766  0.67270816  1
  Li  Li78  1  0.50000317  0.69630872  0.79249278  1
  Li  Li79  1  0.50002818  0.69664748  0.91321556  1
  Li  Li80  1  0.49999178  0.09894514  0.64854471  1
  Li  Li81  1  0.49998544  0.09689204  0.76851483  1
  Li  Li82  1  0.50001376  0.09245728  0.88767733  1
  Li  Li83  1  0.50000306  0.49956051  0.62458000  1
  Li  Li84  1  0.49997803  0.49724278  0.74453106  1
  Li  Li85  1  0.50001436  0.49438239  0.86438075  1
  Li  Li86  1  0.50000897  0.90189806  0.60134808  1
  Li  Li87  1  0.49999867  0.89787360  0.72057281  1
  Li  Li88  1  0.49998252  0.89520450  0.84044330  1
  Li  Li89  1  0.50001440  0.88504431  0.95673638  1
  Li  Li90  1  0.00000462  0.49885644  0.56414238  1
  Li  Li91  1  -0.00000442  0.49873228  0.68465784  1
  Li  Li92  1  0.00001323  0.49588682  0.80441571  1
  Li  Li93  1  0.00001179  0.49497063  0.92491363  1
  Li  Li94  1  0.00000069  0.89403874  0.54175938  1
  Li  Li95  1  -0.00001200  0.89931646  0.66057990  1
  Li  Li96  1  -0.00001398  0.89627579  0.78048590  1
  Li  Li97  1  -0.00001111  0.89150052  0.90016529  1
  Li  Li98  1  0.99999163  0.29995198  0.63672786  1
  Li  Li99  1  -0.00001026  0.29676434  0.75653225  1
  Li  Li100  1  0.00001081  0.29598106  0.87631673  1
  Li  Li101  1  0.00000923  0.69828875  0.61264809  1
  Li  Li102  1  -0.00000403  0.69754443  0.73259322  1
  Li  Li103  1  0.00000238  0.69438808  0.85234130  1
  Li  Li104  1  -0.00001115  0.10272955  0.58886274  1
  Li  Li105  1  -0.00000578  0.09801209  0.70859734  1
  Li  Li106  1  -0.00000799  0.09490919  0.82844104  1
  Li  Li107  1  0.00001702  0.09971564  0.94721710  1
  Li  Li108  1  0.49998706  0.18800184  0.01688435  1
  Li  Li109  1  0.50001615  0.18291241  0.97207539  1
  Li  Li110  1  -0.00001146  0.67153371  0.97040725  1
  Li  Li111  1  0.49998095  0.76710352  0.99450201  1
  Li  Li112  1  0.99999487  0.67889299  0.01892828  1
  Li  Li113  1  0.49997783  0.89111719  0.03225737  1
  Li  Li114  1  0.49998247  0.81697069  0.47207319  1
  Li  Li115  1  0.49999807  0.81227332  0.51688203  1
  Li  Li116  1  -0.00003435  0.32836120  0.47040659  1
  Li  Li117  1  0.50001699  0.23286346  0.49450517  1
  Li  Li118  1  0.50000979  0.10907134  0.53227197  1
  Li  Li119  1  0.00000625  0.32125931  0.51892011  1
  Cl  Cl120  1  -0.00000977  0.59895277  0.10066706  1
  Cl  Cl121  1  0.00001377  0.60190420  0.22055859  1
  Cl  Cl122  1  0.00001699  0.60506673  0.34048066  1
  Cl  Cl123  1  -0.00000265  0.60874413  0.46025982  1
  Cl  Cl124  1  -0.00001869  0.19879733  0.07609649  1
  Cl  Cl125  1  0.00000652  0.20165544  0.19664586  1
  Cl  Cl126  1  0.00003057  0.20444679  0.31642361  1
  Cl  Cl127  1  -0.00000253  0.19939953  0.43498721  1
  Cl  Cl128  1  -0.00002865  0.80642490  0.05406791  1
  Cl  Cl129  1  0.00000521  0.80080705  0.17262228  1
  Cl  Cl130  1  0.00002205  0.80341780  0.29242583  1
  Cl  Cl131  1  -0.00000015  0.80695896  0.41291457  1
  Cl  Cl132  1  0.99999175  0.40055908  0.14855995  1
  Cl  Cl133  1  0.00001037  0.40312779  0.26852393  1
  Cl  Cl134  1  0.00000051  0.40679956  0.38829213  1
  Cl  Cl135  1  0.99999100  0.00141353  0.12489362  1
  Cl  Cl136  1  0.00000809  0.00255929  0.24454583  1
  Cl  Cl137  1  0.00002083  0.00417658  0.36413499  1
  Cl  Cl138  1  0.00000178  0.40109467  0.60066519  1
  Cl  Cl139  1  -0.00000534  0.39810316  0.72055934  1
  Cl  Cl140  1  -0.00000726  0.39487287  0.84047652  1
  Cl  Cl141  1  0.00000803  0.39112353  0.96025325  1
  Cl  Cl142  1  0.00000549  0.80129323  0.57609331  1
  Cl  Cl143  1  0.00000270  0.79837991  0.69664471  1
  Cl  Cl144  1  -0.00000614  0.79551288  0.81642042  1
  Cl  Cl145  1  0.00000982  0.80045621  0.93498519  1
  Cl  Cl146  1  0.00000634  0.19368548  0.55406646  1
  Cl  Cl147  1  0.00000050  0.19924153  0.67262269  1
  Cl  Cl148  1  -0.00001896  0.19658027  0.79242431  1
  Cl  Cl149  1  0.00001481  0.19292646  0.91291419  1
  Cl  Cl150  1  -0.00000081  0.59948144  0.64855940  1
  Cl  Cl151  1  -0.00000573  0.59688689  0.76852242  1
  Cl  Cl152  1  0.00001783  0.59311783  0.88828694  1
  Cl  Cl153  1  0.00000058  0.99864001  0.62489378  1
  Cl  Cl154  1  -0.00000461  0.99744364  0.74454447  1
  Cl  Cl155  1  -0.00000036  0.99575620  0.86413343  1
  Cl  Cl156  1  -0.00003119  0.39628353  0.02864830  1
  Cl  Cl157  1  0.00000261  0.09083795  0.99457773  1
  Cl  Cl158  1  0.00000340  0.60383980  0.52864755  1
  Cl  Cl159  1  0.00001694  0.90922013  0.49457192  1
  O  O160  1  0.49994806  0.49975950  0.06432117  1
  O  O161  1  0.50001564  0.50116025  0.18460162  1
  O  O162  1  0.50001893  0.50404790  0.30445921  1
  O  O163  1  0.49998575  0.50581070  0.42465692  1
  O  O164  1  0.49996326  0.09764419  0.04028916  1
  O  O165  1  0.49999448  0.10113608  0.16066006  1
  O  O166  1  0.50001002  0.10336938  0.28049248  1
  O  O167  1  0.49999868  0.10504548  0.39991789  1
  O  O168  1  0.50000020  0.70019983  0.13664791  1
  O  O169  1  0.50001345  0.70285909  0.25650426  1
  O  O170  1  0.50000379  0.70555628  0.37648325  1
  O  O171  1  0.49999563  0.30025098  0.11250414  1
  O  O172  1  0.50001108  0.30233121  0.23257567  1
  O  O173  1  0.50002437  0.30542891  0.35235657  1
  O  O174  1  0.49998173  0.90076668  0.08911575  1
  O  O175  1  0.50000465  0.90177584  0.20857790  1
  O  O176  1  0.50004225  0.90441228  0.32835299  1
  O  O177  1  0.49999398  0.90820116  0.44871852  1
  O  O178  1  0.50000362  0.50030235  0.56431950  1
  O  O179  1  0.49999739  0.49889286  0.68460257  1
  O  O180  1  0.49999126  0.49594329  0.80445785  1
  O  O181  1  0.50001468  0.49406426  0.92465457  1
  O  O182  1  0.50000366  0.90249360  0.54028848  1
  O  O183  1  0.49999072  0.89892127  0.66066045  1
  O  O184  1  0.49998777  0.89662877  0.78049162  1
  O  O185  1  0.50000219  0.89485442  0.89991459  1
  O  O186  1  0.49999510  0.29985647  0.63664898  1
  O  O187  1  0.49999050  0.29713617  0.75650501  1
  O  O188  1  0.50001225  0.29436930  0.87647952  1
  O  O189  1  0.50001508  0.69981574  0.61250350  1
  O  O190  1  0.49999749  0.69766930  0.73257415  1
  O  O191  1  0.50000084  0.69452313  0.85235350  1
  O  O192  1  0.49999791  0.09928650  0.58911635  1
  O  O193  1  0.49999648  0.09823623  0.70857857  1
  O  O194  1  0.50000000  0.09554455  0.82835046  1
  O  O195  1  0.50001418  0.09169140  0.94872123  1
  O  O196  1  0.49998815  0.71083147  0.97064400  1
  O  O197  1  0.49998938  0.71613265  0.01850405  1
  O  O198  1  0.50000428  0.28906031  0.47064547  1
  O  O199  1  0.50000499  0.28395699  0.51850389  1
