# generated using pymatgen
data_Li5Cl4
_symmetry_space_group_name_H-M   'P 1'
_cell_length_a   3.85020927
_cell_length_b   8.71577651
_cell_length_c   72.62062044
_cell_angle_alpha   89.99796703
_cell_angle_beta   90.00013668
_cell_angle_gamma   89.99982515
_symmetry_Int_Tables_number   1
_chemical_formula_structural   Li5Cl4
_chemical_formula_sum   'Li5 Cl4'
_cell_volume   2436.97108129
_cell_formula_units_Z   1
loop_
 _symmetry_equiv_pos_site_id
 _symmetry_equiv_pos_as_xyz
  1  'x, y, z'
loop_
 _atom_type_symbol
 _atom_type_oxidation_number
  Li+  1.0
  Cl-  -1.0
loop_
 _atom_site_type_symbol
 _atom_site_label
 _atom_site_symmetry_multiplicity
 _atom_site_fract_x
 _atom_site_fract_y
 _atom_site_fract_z
 _atom_site_occupancy
  Li+  Li0  1  0.49998706  0.18800184  0.01688435  1.0
  Cl-  Cl1  1  0.99996881  0.39628353  0.02864830  1.0
  Cl-  Cl2  1  -0.00003119  0.39628353  0.02864830  1.0
  Cl-  Cl3  1  0.00000261  0.09083795  -0.00542227  1.0
  Cl-  Cl4  1  1.00000261  0.09083795  -0.00542227  1.0
  Li+  Li5  1  0.49997783  -0.10888281  0.03225737  1.0
  Li+  Li6  1  0.49994613  0.30168439  0.05224497  1.0
  Li+  Li7  1  0.99997207  0.10609690  0.04176352  1.0
  Li+  Li8  1  -0.00002793  0.10609690  0.04176352  1.0
