# generated using pymatgen
data_Li7Cl2
_symmetry_space_group_name_H-M   'P 1'
_cell_length_a   3.85020927
_cell_length_b   8.71577651
_cell_length_c   72.62062044
_cell_angle_alpha   89.99796703
_cell_angle_beta   90.00013668
_cell_angle_gamma   89.99982515
_symmetry_Int_Tables_number   1
_chemical_formula_structural   Li7Cl2
_chemical_formula_sum   'Li7 Cl2'
_cell_volume   2436.97108129
_cell_formula_units_Z   1
loop_
 _symmetry_equiv_pos_site_id
 _symmetry_equiv_pos_as_xyz
  1  'x, y, z'
loop_
 _atom_type_symbol
 _atom_type_oxidation_number
  Li+  1.0
  Cl-  -1.0
loop_
 _atom_site_type_symbol
 _atom_site_label
 _atom_site_symmetry_multiplicity
 _atom_site_fract_x
 _atom_site_fract_y
 _atom_site_fract_z
 _atom_site_occupancy
  Li+  Li0  1  0.99998854  0.67153371  0.97040725  1.0
  Cl-  Cl1  1  1.00000803  0.39112353  0.96025325  1.0
  Cl-  Cl2  1  1.00000982  0.80045621  0.93498519  1.0
  Li+  Li3  1  1.49998095  0.76710352  0.99450201  1.0
  Li+  Li4  1  0.49998095  0.76710352  0.99450201  1.0
  Li+  Li5  1  0.50000546  0.57309365  0.95008261  1.0
  Li+  Li6  1  1.50000546  0.57309365  0.95008261  1.0
  Li+  Li7  1  0.50001440  0.88504431  0.95673638  1.0
  Li+  Li8  1  1.50001440  0.88504431  0.95673638  1.0
